Circuit: * C:\Users\oblasco\Documents\GitHub\AstroPiCompute\LTSpice\DCSourceFilter.asc

Direct Newton iteration for .op point succeeded.

Date: Thu Jan 30 08:01:29 2020
Total elapsed time: 9.008 seconds.

tnom = 27
temp = 27
method = modified trap
totiter = 2381248
traniter = 2381243
tranpoints = 516892
accept = 387539
rejected = 129353
matrix size = 6
fillins = 0
solver = Normal
Matrix Compiler1: 164 bytes object code size  0.1/0.0/[0.0]
Matrix Compiler2:      33 opcodes  0.1/[0.1]/0.1

